/*--------------------------------*- C++ -*----------------------------------*\
| =========                 |                                                 |
| \\      /  F ield         | OpenFOAM: The Open Source CFD Toolbox           |
|  \\    /   O peration     | Version:  3.0.1                                 |
|   \\  /    A nd           | Web:      www.OpenFOAM.org                      |
|    \\/     M anipulation  |                                                 |
\*---------------------------------------------------------------------------*/
FoamFile
{
    version     2.0;
    format      ascii;
    class       volScalarField;
    object      k;
}
// * * * * * * * * * * * * * * * * * * * * * * * * * * * * * * * * * * * * * //

dimensions      [0 2 -2 0 0 0 0];

internalField   uniform 150; // 24 400

boundaryField
{
    "(inlet)"
    {
        type            turbulentIntensityKineticEnergyInlet;
        intensity       0.03; //0.03
        value 		$internalField;
    }

    "(cOutlet|wOutlet)"
    {
        type            inletOutlet;
        inletValue      $internalField;
        value           $internalField;
    }
	
    "(drossel|rohr|box|wirbelKammer)"
    {
        type            kqRWallFunction;
        value           $internalField;
    }
}

// ************************************************************************* //
