/*--------------------------------*- C++ -*----------------------------------*\
  =========                 |
  \\      /  F ield         | OpenFOAM: The Open Source CFD Toolbox
   \\    /   O peration     | Website:  https://openfoam.org
    \\  /    A nd           | Version:  8
     \\/     M anipulation  |
\*---------------------------------------------------------------------------*/
FoamFile
{
    version     2.0;
    format      ascii;
    class       volScalarField;
    object      omega;
}
// * * * * * * * * * * * * * * * * * * * * * * * * * * * * * * * * * * * * * //

dimensions      [0 0 -1 0 0 0 0];

internalField   uniform 1000; // 15000

boundaryField
{
    "(inlet)"
    {
        type  		fixedValue;
        value 		$internalField;
    }

    "(cOutlet|wOutlet)"
    {
        type            inletOutlet;
        inletValue      $internalField;
        value           $internalField;
    }

    "(drossel|rohr|box|wirbelKammer)"
    {
        type            omegaWallFunction;
        value           $internalField;
    }
}

// ************************************************************************* //
