/*--------------------------------*- C++ -*----------------------------------*\
| =========                 |                                                 |
| \\      /  F ield         | OpenFOAM: The Open Source CFD Toolbox           |
|  \\    /   O peration     | Version:  3.0.1                                 |
|   \\  /    A nd           | Web:      www.OpenFOAM.org                      |
|    \\/     M anipulation  |                                                 |
\*---------------------------------------------------------------------------*/
FoamFile
{
    version     2.0;
    format      ascii;
    class       dictionary;
    object      blockMeshDict;
}

// * * * * * * * * * * * * * * * * * * * * * * * * * * * * * * * * * * * * * //

convertToMeters 0.001;

vertices
(
    (-30 -1   -30)	//0
    ( 30 -1   -30)	//1
    ( 30  240 -30)	//2
    (-30  240 -30)	//3
    (-30 -1    30)	//4
    ( 30 -1    30)	//5
    ( 30  240  30)	//6
    (-30  240  30)	//7
);

blocks
(
    hex (0 1 2 3 4 5 6 7) 	(12 48 12) 	simpleGrading 	(1 1 1) //5mm per level 0
);

edges
(
);

boundary
(
    box
    {
        type wall;
        faces
        (
            
            (0 1 2 3)
	    (7 6 5 4)
	    (3 2 6 7)
	    (2 1 5 6)
	    (5 4 1 0)
	    (7 4 0 3)
        );
    }
    
);

// ************************************************************************* //
