/*--------------------------------*- C++ -*----------------------------------*\
| =========                 |                                                 |
| \\      /  F ield         | OpenFOAM: The Open Source CFD Toolbox           |
|  \\    /   O peration     | Version:  3.0.1                                 |
|   \\  /    A nd           | Web:      www.OpenFOAM.org                      |
|    \\/     M anipulation  |                                                 |
\*---------------------------------------------------------------------------*/
FoamFile
{
    version     2.0;
    format      ascii;
    class       volScalarField;
    object      p;
}
// * * * * * * * * * * * * * * * * * * * * * * * * * * * * * * * * * * * * * //

dimensions      [1 -1 -2 0 0 0 0];

internalField   uniform 100001;//100000

boundaryField
{
    "(inlet)"
    {
/*
        type            totalPressure;
        phi             phi;
        rho             rho; // none
        psi             thermo:psi;
        gamma           1.4;
        p0              uniform 200000;
        value           uniform 200000;
*/

        type            uniformTotalPressure;
		
		p0				uniform 200000
		
		/*
        p0              table
        (
            (0	   200000)//100001
            (0.010 200000)//0.02
			(0.09  200000)
			(0.09255 200000)
            (1     200000)//200000
        );
		*/
		
		
        phi             phi;
        rho             none; // none
        psi             thermo:psi;
        gamma           1.4;
    }

    "(cOutlet|wOutlet)"
    {
/*
        type            fixedValue;
        value           uniform 100000; // 113000
*/
        type            waveTransmissive;
        field           p;
        psi             thermo:psi;
        gamma           1.4;
        fieldInf        100000;
        lInf            0.025;	//0.005		//this is how far the inf field condition is applied. value before was 1. using 0.005 now
        value           uniform 100000;
    }

    "(drossel|rohr|box|wirbelKammer)"
    {
        type            zeroGradient;
    }
}

// ************************************************************************* //
