FoamFile
	{
		version	8.0;
		format	ascii;
		class	dictionary;
		object	mapFieldsDict;
	}
	

	
	directHitTol 1e-10;
	

// Mandatory entries (unmodifiable)
type            mapFields;
libs            (fieldFunctionObjects);

// Mandatory (inherited) entries (runtime modifiable)
fields          (T p U omega nut k alphat);
//mapRegion       coarseMesh;
mapMethod       direct;
consistent      false;

// Optional entries (runtime modifiable)
// patchMapMethod  direct;  // AMI-related entry
// enabled if consistent=false
patchMap
	(
		(rohr rohr)
		(inlet inlet)
		(drossel drossel)
		(wirbelKammer wirbelKammer)
		(cOutlet cOutlet)
		(wOutlet wOutlet)
	);
	
cuttingPatches
	(
		//cOutlet
		//wOutlet
	);
// patchMap        (<patchSrc> <patchTgt>);
// cuttingPatches  (<patchTgt1> <patchTgt2> ... <patchTgtN>);

// Optional (inherited) entries
//region          region0;
//enabled         true;
log             true;
timeStart       latestTime;
timeEnd         1000;
executeControl  timeStep;
executeInterval 1;
writeControl    timeStep;
writeInterval   1;
